*HEADING
SO-101 upper_arm_link CalculiX smoke test: official
*NODE
1, 38.5839007, 14.4830799, -34.8
2, 38.7364938, 13.2306251, -35.2624926
3, 39.5426863, 13.2340725, -34.4040559
4, 39.7887279, 13.3567434, -34.2422679
5, 39.7838023, 14.5086436, -33.0577321
6, 38.5801347, 15.3637973, -33.8943302
7, 38.5708475, 17.5356981, -34.8
8, 39.3708402, 17.5391189, -35.6
9, 39.3892516, 13.2334164, -35.6
10, 48.2891702, 13.2714729, -35.6
11, 48.2707588, 17.5771754, -35.6
12, 49.0838047, 14.5279781, -34.8
13, 48.9419281, 13.2742641, -35.2624926
14, 49.0707515, 17.5805962, -34.8
15, 49.0800387, 15.4086954, -33.8943302
16, 47.8837283, 14.5432793, -33.0577321
17, 47.8886539, 13.3913791, -34.2422679
18, 48.1357355, 13.2708168, -34.4040559
19, 39.3674194, 18.3391116, -34.8
20, 48.267338, 18.3771681, -34.8
** ... 3730 like lines cut
*ELEMENT, TYPE=C3D4, ELSET=EALL
1, 1690, 3370, 1684, 3446
2, 2942, 668, 2922, 3612
3, 2986, 3359, 3349, 3515
4, 3323, 3469, 1867, 3501
5, 3323, 3501, 1867, 3571
6, 3083, 274, 3079, 3078
7, 3299, 3323, 3582, 3624
8, 1684, 3446, 3370, 3525
9, 1496, 584, 1484, 3334
10, 843, 3403, 3315, 3618
11, 2352, 3421, 2368, 3699
12, 2372, 3406, 3453, 3740
13, 2713, 3322, 2732, 3384
14, 3037, 3321, 2980, 3581
15, 3225, 3422, 3169, 3503
16, 3310, 3355, 3380, 3545
17, 280, 2081, 3332, 3541
18, 2081, 3432, 3332, 3541
19, 3331, 3380, 3355, 3545
20, 3299, 3582, 3347, 3624
** ... 12390 like lines cut
*NSET, NSET=FIXED
49, 50, 51, 52, 53, 54, 55, 56, 57, 58, 59, 73
74, 75, 76, 79, 82, 278, 279, 281, 282, 283, 284, 285
286, 287, 288, 297, 298, 299, 300, 309, 310, 311, 312, 317
318, 319, 320, 325, 326, 327, 328, 341, 342, 343, 344, 345
346, 347, 348, 360, 361, 362, 363, 364, 365, 366, 367, 368
369, 370, 371, 372, 373, 374, 375, 376, 377, 388, 389, 390
391, 396, 397, 398, 399, 404, 405, 406, 407, 412, 413, 414
415, 420, 421, 422, 423, 428, 429, 430, 431, 449, 450, 451
452, 453, 454, 455, 456, 457, 458, 459, 460, 461, 462, 463
464, 465, 466, 467, 468, 469, 470, 471, 483, 484, 485, 489
490, 491, 492, 493, 494, 495, 496, 497, 507, 508, 509, 510
511, 512, 513, 514, 515, 516, 517, 518, 519, 526, 530, 630
631, 632, 633, 634, 635, 636, 637, 638, 639, 640, 641, 642
643, 644, 662, 663, 666, 667, 668, 669, 672, 678, 679, 682
1020, 1021, 1022, 1027, 1028, 1029, 1030, 1031, 1032, 1033, 1034, 1035
1036, 1076, 1077, 1078, 1079, 1080, 1081, 1082, 1083, 1084, 1125, 1126
1127, 1128, 1129, 1130, 1131, 1132, 1133, 1134, 1135, 1136, 1137, 1138
1139, 1140, 1141, 1142, 1143, 1144, 1145, 1146, 1147, 1148, 1149, 1150
1151, 1152, 1153, 1154, 1155, 1156, 1157, 1158, 1159, 1160, 1161, 1162
1163, 1164, 1165, 1166, 1167, 1168, 1169, 1170, 1171, 1172, 1176, 1179
** ... 37 like lines cut
*NSET, NSET=LOADED
107, 108, 109, 110, 111, 112, 113, 114, 123, 124, 125, 126
127, 128, 129, 130, 131, 132, 133, 134, 135, 136, 137, 149
150, 151, 152, 153, 154, 155, 156, 165, 166, 167, 168, 169
170, 171, 172, 173, 174, 175, 176, 177, 178, 179, 189, 190
191, 192, 199, 200, 205, 206, 210, 211, 220, 221, 222, 223
225, 227, 229, 230, 240, 241, 251, 252, 253, 254, 255, 256
257, 258, 260, 262, 263, 268, 269, 274, 533, 534, 535, 536
537, 542, 543, 544, 545, 547, 548, 549, 550, 558, 566, 567
568, 569, 570, 571, 572, 573, 575, 576, 718, 719, 720, 721
722, 723, 724, 725, 734, 735, 736, 737, 738, 739, 740, 741
742, 743, 744, 756, 757, 758, 759, 760, 761, 762, 763, 772
773, 774, 775, 776, 777, 778, 779, 780, 781, 782, 804, 825
842, 850, 851, 856, 858, 859, 866, 867, 868, 869, 870, 871
872, 873, 874, 879, 880, 881, 882, 887, 888, 911, 912, 913
937, 939, 940, 941, 942, 943, 944, 947, 948, 949, 950, 951
952, 953, 954, 955, 960, 961, 962, 963, 968, 969, 982, 983
984, 985, 986, 987, 988, 1326, 1327, 1328, 1329, 1330, 1331, 1332
1333, 1334, 1348, 1349, 1361, 1362, 1363, 1364, 1365, 1366, 1367, 1380
1381, 1435, 1436, 1437, 1438, 1439, 1440, 1441, 1447, 1448, 1449, 1450
1451, 1452, 1453, 1454, 1455, 1456, 1457, 1458, 1459, 1470, 1471, 1472
** ... 28 like lines cut
*ELSET, ELSET=EALL
1, 2, 3, 4, 5, 6, 7, 8, 9, 10, 11, 12
13, 14, 15, 16, 17, 18, 19, 20, 21, 22, 23, 24
25, 26, 27, 28, 29, 30, 31, 32, 33, 34, 35, 36
37, 38, 39, 40, 41, 42, 43, 44, 45, 46, 47, 48
49, 50, 51, 52, 53, 54, 55, 56, 57, 58, 59, 60
61, 62, 63, 64, 65, 66, 67, 68, 69, 70, 71, 72
73, 74, 75, 76, 77, 78, 79, 80, 81, 82, 83, 84
85, 86, 87, 88, 89, 90, 91, 92, 93, 94, 95, 96
97, 98, 99, 100, 101, 102, 103, 104, 105, 106, 107, 108
109, 110, 111, 112, 113, 114, 115, 116, 117, 118, 119, 120
121, 122, 123, 124, 125, 126, 127, 128, 129, 130, 131, 132
133, 134, 135, 136, 137, 138, 139, 140, 141, 142, 143, 144
145, 146, 147, 148, 149, 150, 151, 152, 153, 154, 155, 156
157, 158, 159, 160, 161, 162, 163, 164, 165, 166, 167, 168
169, 170, 171, 172, 173, 174, 175, 176, 177, 178, 179, 180
181, 182, 183, 184, 185, 186, 187, 188, 189, 190, 191, 192
193, 194, 195, 196, 197, 198, 199, 200, 201, 202, 203, 204
205, 206, 207, 208, 209, 210, 211, 212, 213, 214, 215, 216
217, 218, 219, 220, 221, 222, 223, 224, 225, 226, 227, 228
229, 230, 231, 232, 233, 234, 235, 236, 237, 238, 239, 240
** ... 1015 like lines cut
*MATERIAL, NAME=PLA_screening
*ELASTIC
2500, 0.35
*SOLID SECTION, ELSET=EALL, MATERIAL=PLA_screening
*BOUNDARY
FIXED, 1, 3, 0.0
*STEP
*STATIC
*CLOAD
107, 3, -0.0175746924429
108, 3, -0.0175746924429
109, 3, -0.0175746924429
110, 3, -0.0175746924429
111, 3, -0.0175746924429
112, 3, -0.0175746924429
113, 3, -0.0175746924429
114, 3, -0.0175746924429
123, 3, -0.0175746924429
124, 3, -0.0175746924429
125, 3, -0.0175746924429
126, 3, -0.0175746924429
127, 3, -0.0175746924429
128, 3, -0.0175746924429
129, 3, -0.0175746924429
130, 3, -0.0175746924429
131, 3, -0.0175746924429
132, 3, -0.0175746924429
133, 3, -0.0175746924429
134, 3, -0.0175746924429
** ... 549 like lines cut
*NODE PRINT, NSET=LOADED
U
*EL PRINT, ELSET=EALL
S
*NODE FILE
U
*EL FILE
S
*END STEP
