*HEADING
SO-101 upper_arm_link CalculiX smoke test: v3_full
*NODE
1, 101, -4.95, 15.55
2, 99.8, -4.95, 15.55
3, 99.8, -4.95, -15.55
4, 101, -4.95, -15.55
5, 101, 4.95, 15.55
6, 99.8, 4.95, 15.55
7, 99.8, 4.95, -15.55
8, 101, 4.95, -15.55
9, 110.9, -4.95, 15.55
10, 109.7, -4.95, 15.55
11, 109.7, -4.95, -15.55
12, 110.9, -4.95, -15.55
13, 110.9, 4.95, 15.55
14, 109.7, 4.95, 15.55
15, 109.7, 4.95, -15.55
16, 110.9, 4.95, -15.55
17, 9, -7.5, 15.5884573
18, 9, -7.5, 15.9
19, 9, 7.5, 15.9
20, 9, 7.5, 15.5884573
** ... 3235 like lines cut
*ELEMENT, TYPE=C3D4, ELSET=EALL
1, 2839, 2973, 2980, 3019
2, 186, 827, 794, 803
3, 803, 214, 827, 836
4, 1507, 2963, 2949, 3113
5, 2720, 2668, 2702, 2862
6, 1459, 2963, 2951, 3130
7, 1696, 1722, 2007, 1721
8, 2918, 3057, 41, 3090
9, 1362, 340, 3100, 3115
10, 2951, 2963, 1459, 3113
11, 2948, 2963, 1506, 3130
12, 2828, 2980, 2973, 2999
13, 1367, 3072, 2989, 3124
14, 2624, 2960, 2898, 3021
15, 2932, 2960, 2576, 3021
16, 1350, 1359, 318, 2937
17, 2890, 1410, 2960, 3217
18, 2698, 2984, 3091, 3186
19, 2828, 2839, 2973, 2980
20, 3053, 3109, 2921, 3163
** ... 11028 like lines cut
*NSET, NSET=FIXED
31, 32, 33, 34, 75, 78, 82, 84, 132, 134, 135, 136
137, 138, 139, 140, 141, 142, 143, 144, 428, 429, 430, 431
432, 433, 434, 435, 447, 448, 449, 450, 451, 452, 453, 454
519, 520, 522, 523, 530, 531, 532, 533, 534, 535, 536, 537
538, 539, 541, 542, 549, 550, 551, 552, 553, 555, 556, 557
559, 560, 561, 562, 563, 564, 565, 664, 665, 666, 668, 669
670, 672, 673, 674, 675, 676, 677, 678, 689, 690, 691, 692
693, 694, 695, 696, 697, 698, 699, 700, 701, 702, 703, 704
705, 709, 710, 711, 712, 713, 714, 715, 716, 717, 718, 719
720, 721, 722, 723, 724, 725, 726, 727, 728, 732, 733, 734
735, 736, 737, 738, 739, 740, 741, 742, 743, 744, 745, 746
747, 748, 749, 750, 751, 752, 1001, 1002, 1003, 1004, 1005, 1006
1007, 1008, 1009, 1010, 1011, 1012, 1013, 1014, 1015, 1016, 1017, 1018
1019, 1020, 1021, 1022, 1023, 1024, 1025, 1026, 1027, 1423, 1425, 1428
1432, 1451, 1461, 1462, 1463, 1467, 1468, 1470, 1475, 1480, 1489, 1496
1509, 1548, 1549, 1550, 1551, 1552, 1553, 1554, 1555, 1556, 1557, 1558
1559, 1560, 1561, 1562, 1563, 1574, 1575, 1576, 1577, 1578, 1579, 1580
1581, 1673, 1674, 1675, 1676, 1677, 1678, 1679, 1680, 1681, 1682, 1683
1684, 1685, 1686, 1687, 1688, 1689, 1690, 1691, 1692, 1693, 1694, 1695
1696, 1697, 1698, 1699, 1700, 1701, 1702, 1705, 1706, 1707, 1708, 1709
** ... 21 like lines cut
*NSET, NSET=LOADED
245, 246, 272, 274, 279, 280, 282, 283, 926, 927, 928, 929
930, 931, 1219, 1220, 1221, 1222, 1223, 1224, 1268, 1269, 1270, 1271
1272, 1273, 1274, 1275, 1276, 1277, 1278, 1279, 1283, 1284, 1285, 1286
1287, 1288, 1289, 1290, 1291, 1292, 1293, 1294, 1295, 1296, 1297, 1305
1306, 1307, 1311, 1312, 1313, 1314, 1315, 1316, 2582, 2583, 2586, 2587
2592, 2598, 2600, 2603, 2606, 2612, 2621, 2623, 2625, 2630, 2631, 2633
2638, 2639, 2641, 2642, 2646, 2663, 2664, 2667, 2668, 2673, 2679, 2681
2684, 2687, 2693, 2702, 2704, 2706, 2711, 2712, 2714, 2719, 2720, 2722
2723, 2727, 2794, 2795, 2796, 2797, 2798, 2799, 2800, 2801, 2802, 2803
2804, 2805, 2806, 2807, 2808, 2809, 2810, 2811, 2812, 2813, 2814, 2815
2816, 2817, 2818, 2819, 2820, 2821, 2822, 2823, 2824, 2825, 2826, 2827
2828, 2829, 2830, 2831, 2832, 2833, 2834, 2835, 2836, 2837, 2838, 2839
2840, 2841, 2842, 2843, 2844, 2845, 2846, 2847, 2848, 2849, 2850, 2851
2852, 2853, 2854, 2855, 2856, 2857, 2858, 2859, 2860, 2861, 2862, 2863
2864, 2868, 2869, 2872, 2873, 2874, 2875, 2876, 2877, 2879, 2880, 2884
2893, 2896, 2899, 2900, 2903, 2905, 2906, 2962, 2965, 2967, 2972, 2973
2980, 2986, 2987, 2994, 2996, 3005, 3015, 3016, 3019, 3029, 3032, 3044
3050, 3060, 3064, 3082, 3088, 3157, 3178, 3205, 3220
*ELSET, ELSET=EALL
1, 2, 3, 4, 5, 6, 7, 8, 9, 10, 11, 12
13, 14, 15, 16, 17, 18, 19, 20, 21, 22, 23, 24
25, 26, 27, 28, 29, 30, 31, 32, 33, 34, 35, 36
37, 38, 39, 40, 41, 42, 43, 44, 45, 46, 47, 48
49, 50, 51, 52, 53, 54, 55, 56, 57, 58, 59, 60
61, 62, 63, 64, 65, 66, 67, 68, 69, 70, 71, 72
73, 74, 75, 76, 77, 78, 79, 80, 81, 82, 83, 84
85, 86, 87, 88, 89, 90, 91, 92, 93, 94, 95, 96
97, 98, 99, 100, 101, 102, 103, 104, 105, 106, 107, 108
109, 110, 111, 112, 113, 114, 115, 116, 117, 118, 119, 120
121, 122, 123, 124, 125, 126, 127, 128, 129, 130, 131, 132
133, 134, 135, 136, 137, 138, 139, 140, 141, 142, 143, 144
145, 146, 147, 148, 149, 150, 151, 152, 153, 154, 155, 156
157, 158, 159, 160, 161, 162, 163, 164, 165, 166, 167, 168
169, 170, 171, 172, 173, 174, 175, 176, 177, 178, 179, 180
181, 182, 183, 184, 185, 186, 187, 188, 189, 190, 191, 192
193, 194, 195, 196, 197, 198, 199, 200, 201, 202, 203, 204
205, 206, 207, 208, 209, 210, 211, 212, 213, 214, 215, 216
217, 218, 219, 220, 221, 222, 223, 224, 225, 226, 227, 228
229, 230, 231, 232, 233, 234, 235, 236, 237, 238, 239, 240
** ... 901 like lines cut
*MATERIAL, NAME=PLA_screening
*ELASTIC
2500, 0.35
*SOLID SECTION, ELSET=EALL, MATERIAL=PLA_screening
*BOUNDARY
FIXED, 1, 3, 0.0
*STEP
*STATIC
*CLOAD
245, 3, -0.0469483568075
246, 3, -0.0469483568075
272, 3, -0.0469483568075
274, 3, -0.0469483568075
279, 3, -0.0469483568075
280, 3, -0.0469483568075
282, 3, -0.0469483568075
283, 3, -0.0469483568075
926, 3, -0.0469483568075
927, 3, -0.0469483568075
928, 3, -0.0469483568075
929, 3, -0.0469483568075
930, 3, -0.0469483568075
931, 3, -0.0469483568075
1219, 3, -0.0469483568075
1220, 3, -0.0469483568075
1221, 3, -0.0469483568075
1222, 3, -0.0469483568075
1223, 3, -0.0469483568075
1224, 3, -0.0469483568075
** ... 193 like lines cut
*NODE PRINT, NSET=LOADED
U
*EL PRINT, ELSET=EALL
S
*NODE FILE
U
*EL FILE
S
*END STEP
